<?xml version="1.0" encoding="UTF-8"?>

<!-- generated on 2022-10-31 14:58:07 by Eclipse SUMO netedit Version 1.14.1
<configuration xmlns:xsi="http://www.w3.org/2001/XMLSchema-instance" xsi:noNamespaceSchemaLocation="http://sumo.dlr.de/xsd/netconvertConfiguration.xsd">

    <output>
        <output-file value="C:\DEV\demo.net.xml"/>
    </output>

    <processing>
        <offset.disable-normalization value="true"/>
    </processing>

    <junctions>
        <no-turnarounds value="true"/>
    </junctions>

</configuration>
-->

<net version="1.9" junctionCornerDetail="5" limitTurnSpeed="5.50" xmlns:xsi="http://www.w3.org/2001/XMLSchema-instance" xsi:noNamespaceSchemaLocation="http://sumo.dlr.de/xsd/net_file.xsd">

    <location netOffset="0.00,0.00" convBoundary="-28.91,-16.10,95.66,91.20" origBoundary="10000000000.00,10000000000.00,-10000000000.00,-10000000000.00" projParameter="!"/>

    <edge id=":J0_0" function="internal">
        <lane id=":J0_0_0" index="0" speed="7.45" length="12.08" shape="-18.87,41.83 -18.06,44.19 -16.17,45.76 -13.20,46.54 -9.15,46.54"/>
        <lane id=":J0_0_1" index="1" speed="8.11" length="14.49" shape="-18.87,41.83 -17.92,45.59 -15.94,48.15 -12.92,49.53 -8.87,49.72"/>
        <lane id=":J0_0_2" index="2" speed="8.77" length="17.11" shape="-18.87,41.83 -17.79,46.98 -15.71,50.54 -12.65,52.52 -8.59,52.91"/>
    </edge>
    <edge id=":J0_3" function="internal">
        <lane id=":J0_3_0" index="0" speed="13.89" length="21.99" shape="-18.87,41.83 -18.16,47.53 -16.97,51.42 -14.64,54.72 -10.50,58.68"/>
        <lane id=":J0_3_1" index="1" speed="13.89" length="21.99" shape="-22.06,42.15 -21.25,48.55 -19.91,52.91 -17.29,56.62 -12.64,61.07"/>
        <lane id=":J0_3_2" index="2" speed="13.89" length="21.99" shape="-25.24,42.46 -24.35,49.57 -22.85,54.40 -19.93,58.52 -14.77,63.45"/>
    </edge>
    <edge id=":J10_0" function="internal">
        <lane id=":J10_0_0" index="0" speed="13.89" length="2.49" shape="-20.58,22.55 -20.67,22.77 -20.72,22.94 -20.72,23.11 -20.70,23.35"/>
        <lane id=":J10_0_1" index="1" speed="7.66" length="2.49" shape="-23.51,21.26 -23.79,21.93 -23.93,22.42 -23.95,22.93 -23.89,23.66"/>
        <lane id=":J10_0_2" index="2" speed="9.74" length="2.49" shape="-26.43,19.97 -26.91,21.09 -27.14,21.91 -27.17,22.76 -27.07,23.98"/>
    </edge>
    <edge id=":J8_0" function="internal">
        <lane id=":J8_0_0" index="0" speed="13.89" length="2.81" shape="43.80,-7.81 43.56,-7.95 43.39,-8.02 43.20,-8.05 42.92,-8.05"/>
        <lane id=":J8_0_1" index="1" speed="7.29" length="2.81" shape="45.51,-10.51 44.80,-10.94 44.27,-11.16 43.70,-11.25 42.87,-11.25"/>
        <lane id=":J8_0_2" index="2" speed="9.26" length="2.81" shape="47.22,-13.22 46.04,-13.93 45.15,-14.30 44.20,-14.45 42.82,-14.45"/>
    </edge>
    <edge id=":J9_0" function="internal">
        <lane id=":J9_0_0" index="0" speed="3.98" length="1.83" shape="-6.41,-7.31 -6.88,-7.25 -7.28,-7.07 -7.60,-6.77 -7.85,-6.36"/>
        <lane id=":J9_0_1" index="1" speed="6.23" length="5.50" shape="-6.45,-10.51 -7.88,-10.31 -9.07,-9.77 -10.04,-8.88 -10.77,-7.65"/>
        <lane id=":J9_0_2" index="2" speed="7.86" length="9.17" shape="-6.50,-13.71 -8.88,-13.38 -10.87,-12.48 -12.48,-11.00 -13.70,-8.94"/>
    </edge>

    <edge id="e1" from="J0" to="J1" priority="-1">
        <lane id="e1_0" index="0" speed="13.89" length="41.77" shape="-10.50,58.68 20.64,86.51"/>
        <lane id="e1_1" index="1" speed="13.89" length="41.77" shape="-12.64,61.07 18.51,88.90"/>
        <lane id="e1_2" index="2" speed="13.89" length="41.77" shape="-14.77,63.45 16.38,91.28"/>
    </edge>
    <edge id="e2" from="J2" to="J1" priority="-1">
        <lane id="e2_0" index="0" speed="13.89" length="19.80" shape="42.82,97.17 23.21,94.45"/>
        <lane id="e2_1" index="1" speed="13.89" length="19.80" shape="43.26,94.00 23.65,91.28"/>
        <lane id="e2_2" index="2" speed="13.89" length="19.80" shape="43.70,90.83 24.09,88.11"/>
    </edge>
    <edge id="e3" from="J2" to="J3" priority="-1">
        <lane id="e3_0" index="0" speed="13.89" length="63.45" shape="47.59,89.67 95.26,47.79"/>
        <lane id="e3_1" index="1" speed="13.89" length="63.45" shape="49.70,92.07 97.37,50.19"/>
        <lane id="e3_2" index="2" speed="13.89" length="63.45" shape="51.82,94.48 99.48,52.60"/>
    </edge>
    <edge id="e4" from="J7" to="J3" priority="-1">
        <lane id="e4_0" index="0" speed="13.89" length="15.83" shape="103.52,28.35 103.34,44.19"/>
        <lane id="e4_1" index="1" speed="13.89" length="15.83" shape="100.32,28.32 100.14,44.15"/>
        <lane id="e4_2" index="2" speed="13.89" length="15.83" shape="97.12,28.28 96.94,44.11"/>
    </edge>
    <edge id="e5" from="J7" to="J8" priority="-1">
        <lane id="e5_0" index="0" speed="13.89" length="60.70" shape="95.12,24.61 43.80,-7.81"/>
        <lane id="e5_1" index="1" speed="13.89" length="60.70" shape="96.83,21.90 45.51,-10.51"/>
        <lane id="e5_2" index="2" speed="13.89" length="60.70" shape="98.54,19.20 47.22,-13.22"/>
    </edge>
    <edge id="e6" from="J8" to="J9" priority="-1">
        <lane id="e6_0" index="0" speed="13.89" length="49.33" shape="42.92,-8.05 -6.41,-7.31"/>
        <lane id="e6_1" index="1" speed="13.89" length="49.33" shape="42.87,-11.25 -6.45,-10.51"/>
        <lane id="e6_2" index="2" speed="13.89" length="49.33" shape="42.82,-14.45 -6.50,-13.71"/>
    </edge>
    <edge id="e7" from="J9" to="J10" priority="-1">
        <lane id="e7_0" index="0" speed="13.89" length="31.58" shape="-7.85,-6.36 -20.58,22.55"/>
        <lane id="e7_1" index="1" speed="13.89" length="31.58" shape="-10.77,-7.65 -23.51,21.26"/>
        <lane id="e7_2" index="2" speed="13.89" length="31.58" shape="-13.70,-8.94 -26.43,19.97"/>
    </edge>
    <edge id="e8" from="J10" to="J0" priority="-1">
        <lane id="e8_0" index="0" speed="13.89" length="18.57" shape="-20.70,23.35 -18.87,41.83"/>
        <lane id="e8_1" index="1" speed="13.89" length="18.57" shape="-23.89,23.66 -22.06,42.15"/>
        <lane id="e8_2" index="2" speed="13.89" length="18.57" shape="-27.07,23.98 -25.24,42.46"/>
    </edge>
    <edge id="e9" from="J0" to="J11" priority="-1">
        <lane id="e9_0" index="0" speed="13.89" length="39.78" shape="-9.15,46.54 30.48,43.05"/>
        <lane id="e9_1" index="1" speed="13.89" length="39.78" shape="-8.87,49.72 30.76,46.24"/>
        <lane id="e9_2" index="2" speed="13.89" length="39.78" shape="-8.59,52.91 31.04,49.43"/>
    </edge>

    <junction id="J0" type="priority" x="-25.51" y="56.00" incLanes="e8_0 e8_1 e8_2" intLanes=":J0_0_0 :J0_0_1 :J0_0_2 :J0_3_0 :J0_3_1 :J0_3_2" shape="-15.84,64.65 -9.44,57.49 -10.64,55.98 -10.67,55.42 -10.31,54.99 -9.57,54.68 -8.45,54.50 -9.29,44.94 -11.62,45.04 -13.55,44.88 -15.09,44.46 -16.22,43.79 -16.95,42.86 -17.28,41.67 -26.83,42.62 -26.23,47.94 -25.48,51.95 -24.32,55.15 -22.50,58.01 -19.75,61.02">
        <request index="0" response="000000" foes="000000" cont="0"/>
        <request index="1" response="000000" foes="000000" cont="0"/>
        <request index="2" response="000000" foes="000000" cont="0"/>
        <request index="3" response="000000" foes="000000" cont="0"/>
        <request index="4" response="000000" foes="000000" cont="0"/>
        <request index="5" response="000000" foes="000000" cont="0"/>
    </junction>
    <junction id="J1" type="dead_end" x="5.77" y="83.95" incLanes="e2_0 e2_1 e2_2 e1_0 e1_1 e1_2" intLanes="" shape="22.99,96.03 24.31,86.52 23.24,86.34 22.88,86.21 22.54,86.01 22.18,85.73 21.71,85.32 15.31,92.48 17.78,94.52 18.76,95.09 19.84,95.48 21.19,95.76"/>
    <junction id="J10" type="priority" x="-28.91" y="21.63" incLanes="e7_0 e7_1 e7_2" intLanes=":J10_0_0 :J10_0_1 :J10_0_2" shape="-28.67,24.14 -19.11,23.19 -27.90,19.32 -28.59,21.02 -28.74,21.66 -28.79,22.31 -28.76,23.09">
        <request index="0" response="000" foes="000" cont="0"/>
        <request index="1" response="000" foes="000" cont="0"/>
        <request index="2" response="000" foes="000" cont="0"/>
    </junction>
    <junction id="J11" type="dead_end" x="31.18" y="51.02" incLanes="e9_0 e9_1 e9_2" intLanes="" shape="30.34,41.46 31.18,51.02"/>
    <junction id="J2" type="dead_end" x="57.97" y="91.20" incLanes="" intLanes="" shape="52.87,95.68 46.53,88.47 45.74,88.99 45.32,89.16 44.87,89.25 44.41,89.29 43.92,89.25 42.60,98.76 46.34,98.78 48.09,98.39 49.76,97.75 51.36,96.84"/>
    <junction id="J3" type="dead_end" x="95.18" y="58.50" incLanes="e4_0 e4_1 e4_2 e3_0 e3_1 e3_2" intLanes="" shape="104.94,44.20 95.34,44.10 95.21,45.04 95.05,45.47 94.83,45.87 94.55,46.24 94.20,46.59 100.54,53.80 102.96,51.04 103.81,49.49 104.43,47.84 104.80,46.08"/>
    <junction id="J7" type="dead_end" x="95.66" y="15.49" incLanes="" intLanes="" shape="99.40,17.85 94.27,25.96 94.97,26.57 95.22,26.94 95.39,27.34 95.49,27.78 95.52,28.26 105.12,28.37 104.98,26.17 104.52,24.15 103.73,22.31 102.61,20.64 101.17,19.16"/>
    <junction id="J8" type="priority" x="45.66" y="-16.10" incLanes="e5_0 e5_1 e5_2" intLanes=":J8_0_0 :J8_0_1 :J8_0_2" shape="42.95,-6.45 48.07,-14.57 46.28,-15.61 45.59,-15.87 44.87,-16.01 43.98,-16.06 42.80,-16.05">
        <request index="0" response="000" foes="000" cont="0"/>
        <request index="1" response="000" foes="000" cont="0"/>
        <request index="2" response="000" foes="000" cont="0"/>
    </junction>
    <junction id="J9" type="priority" x="-12.68" y="-15.22" incLanes="e6_0 e6_1 e6_2" intLanes=":J9_0_0 :J9_0_1 :J9_0_2" shape="-6.38,-5.71 -6.53,-15.31 -10.22,-14.63 -11.77,-13.83 -13.10,-12.72 -14.24,-11.31 -15.17,-9.58">
        <request index="0" response="000" foes="000" cont="0"/>
        <request index="1" response="000" foes="000" cont="0"/>
        <request index="2" response="000" foes="000" cont="0"/>
    </junction>

    <connection from="e5" to="e6" fromLane="0" toLane="0" via=":J8_0_0" dir="s" state="M"/>
    <connection from="e5" to="e6" fromLane="1" toLane="1" via=":J8_0_1" dir="s" state="M"/>
    <connection from="e5" to="e6" fromLane="2" toLane="2" via=":J8_0_2" dir="s" state="M"/>
    <connection from="e6" to="e7" fromLane="0" toLane="0" via=":J9_0_0" dir="r" state="M"/>
    <connection from="e6" to="e7" fromLane="1" toLane="1" via=":J9_0_1" dir="r" state="M"/>
    <connection from="e6" to="e7" fromLane="2" toLane="2" via=":J9_0_2" dir="r" state="M"/>
    <connection from="e7" to="e8" fromLane="0" toLane="0" via=":J10_0_0" dir="s" state="M"/>
    <connection from="e7" to="e8" fromLane="1" toLane="1" via=":J10_0_1" dir="s" state="M"/>
    <connection from="e7" to="e8" fromLane="2" toLane="2" via=":J10_0_2" dir="s" state="M"/>
    <connection from="e8" to="e9" fromLane="0" toLane="0" via=":J0_0_0" dir="r" state="M"/>
    <connection from="e8" to="e9" fromLane="0" toLane="1" via=":J0_0_1" dir="r" state="M"/>
    <connection from="e8" to="e9" fromLane="0" toLane="2" via=":J0_0_2" dir="r" state="M"/>
    <connection from="e8" to="e1" fromLane="0" toLane="0" via=":J0_3_0" dir="s" state="M"/>
    <connection from="e8" to="e1" fromLane="1" toLane="1" via=":J0_3_1" dir="s" state="M"/>
    <connection from="e8" to="e1" fromLane="2" toLane="2" via=":J0_3_2" dir="s" state="M"/>

    <connection from=":J0_0" to="e9" fromLane="0" toLane="0" dir="r" state="M"/>
    <connection from=":J0_0" to="e9" fromLane="1" toLane="1" dir="r" state="M"/>
    <connection from=":J0_0" to="e9" fromLane="2" toLane="2" dir="r" state="M"/>
    <connection from=":J0_3" to="e1" fromLane="0" toLane="0" dir="s" state="M"/>
    <connection from=":J0_3" to="e1" fromLane="1" toLane="1" dir="s" state="M"/>
    <connection from=":J0_3" to="e1" fromLane="2" toLane="2" dir="s" state="M"/>
    <connection from=":J10_0" to="e8" fromLane="0" toLane="0" dir="s" state="M"/>
    <connection from=":J10_0" to="e8" fromLane="1" toLane="1" dir="s" state="M"/>
    <connection from=":J10_0" to="e8" fromLane="2" toLane="2" dir="s" state="M"/>
    <connection from=":J8_0" to="e6" fromLane="0" toLane="0" dir="s" state="M"/>
    <connection from=":J8_0" to="e6" fromLane="1" toLane="1" dir="s" state="M"/>
    <connection from=":J8_0" to="e6" fromLane="2" toLane="2" dir="s" state="M"/>
    <connection from=":J9_0" to="e7" fromLane="0" toLane="0" dir="r" state="M"/>
    <connection from=":J9_0" to="e7" fromLane="1" toLane="1" dir="r" state="M"/>
    <connection from=":J9_0" to="e7" fromLane="2" toLane="2" dir="r" state="M"/>

</net>
